<routes><vType id="veh_passenger" vClass="passenger" /><trip id="1684241949520" type="veh_passenger" depart="0" departLane="best" from="-209317297#0" to="-933137813#0" via="544700856#0 -209317305#2 -209019661 -619269820 -96382892#1 -96382893#0 -32902837#4" departSpeed="0" /></routes>