<?xml version="1.0" encoding="UTF-8"?>

<!-- generated on 2024-01-30 13:53:47 by Eclipse SUMO polyconvert Version 1.19.0
<configuration xmlns:xsi="http://www.w3.org/2001/XMLSchema-instance" xsi:noNamespaceSchemaLocation="http://sumo.dlr.de/xsd/polyconvertConfiguration.xsd">

    <input>
        <net-file value="osm.net.xml.gz"/>
        <osm-files value="osm_bbox.osm.xml.gz"/>
        <osm.keep-full-type value="true"/>
        <type-file value="${SUMO_HOME}/data/typemap/osmPolyconvert.typ.xml"/>
    </input>

    <output>
        <output-file value="osm.poly.xml.gz"/>
    </output>

    <report>
        <verbose value="true"/>
    </report>

</configuration>
-->

<additional xmlns:xsi="http://www.w3.org/2001/XMLSchema-instance" xsi:noNamespaceSchemaLocation="http://sumo.dlr.de/xsd/additional_file.xsd">
    <location netOffset="-375080.68,-3933673.17" convBoundary="-2545.27,-1291.45,5815.77,4415.83" origBoundary="139.593438,35.527833,139.686290,35.578706" projParameter="+proj=utm +zone=54 +ellps=WGS84 +datum=WGS84 +units=m +no_defs"/>

    <poly id="1010376455" type="building.retail" color="255,230,230" fill="1" layer="-1.00" shape="3057.344370,1530.131556 3065.083781,1523.280970 3057.571942,1515.584611 3049.823902,1521.802980 3057.344370,1530.131556"/>
    <poly id="1043625876" type="building.apartments" color="255,230,230" fill="1" layer="-1.00" shape="2482.826804,554.998267 2466.603800,555.486900 2465.388526,525.040228 2482.137367,524.544388 2482.826804,554.998267"/>
    <poly id="1043625877" type="building.apartments" color="255,230,230" fill="1" layer="-1.00" shape="2517.634399,521.905723 2465.429935,523.431073 2465.004854,506.973833 2517.007243,505.251567 2517.634399,521.905723"/>
    <poly id="1043625878" type="building.industrial" color="255,230,230" fill="1" layer="-1.00" shape="2459.684749,560.041427 2459.262393,543.783836 2435.688631,545.116581 2445.581237,561.033539 2459.684749,560.041427"/>
    <poly id="1043625879" type="building.industrial" color="255,230,230" fill="1" layer="-1.00" shape="2459.262393,543.783836 2458.727944,534.561194 2432.531429,535.719124 2433.639292,545.100308 2459.262393,543.783836"/>
    <poly id="1052900398" type="amenity.restaurant" color="237,199,199" fill="1" layer="-1.00" shape="1008.559576,1086.596172 1003.351100,1087.589223 1006.126470,1096.159500 1010.673990,1095.231089 1008.559576,1086.596172"/>
    <poly id="1052900398#1" type="building.yes" color="255,230,230" fill="1" layer="-1.00" shape="1008.559576,1086.596172 1003.351100,1087.589223 1006.126470,1096.159500 1010.673990,1095.231089 1008.559576,1086.596172"/>
    <poly id="1052900833" type="building.apartments" color="255,230,230" fill="1" layer="-1.00" shape="1088.560455,1158.439332 1072.903686,1116.000809 1108.930235,1101.378893 1088.560455,1158.439332"/>
    <poly id="1052901237" type="amenity.hospital" color="237,199,199" fill="1" layer="-1.00" shape="1043.904313,1201.259433 1025.242147,1197.069704 1021.462183,1216.070348 1039.809823,1220.464119 1040.494790,1215.595535 1043.904313,1201.259433"/>
    <poly id="1058125485" type="leisure.park" color="207,245,201" fill="1" layer="-2.00" shape="1717.318995,1142.021954 1708.217082,1133.527671 1701.953814,1121.155791 1701.803997,1110.297067 1707.362247,1094.567087 1708.111623,1079.225173 1707.159540,1056.873290 1702.156746,1043.208237 1702.628491,1030.743438 1702.474241,1019.563058 1696.232931,1008.788378 1689.651961,997.053233 1686.623793,987.199383 1686.117058,973.472302 1686.795867,953.017139 1699.120111,939.423653 1710.324928,937.349853 1723.998243,928.219670 1729.120206,927.516677 1742.220319,923.497556 1756.259289,917.868008 1775.706946,913.916721 1784.404497,910.169148 1790.202183,907.182655 1800.318099,899.776794 1805.801022,891.713713 1808.136986,884.903232 1809.258263,878.109495 1807.973397,873.035174 1814.596440,877.303728 1821.444203,880.115909 1830.741366,884.347619 1837.609140,888.612817 1843.034129,894.107120 1847.224400,898.165159 1849.236615,902.730244 1849.326789,909.274313 1847.715987,916.074790 1842.735841,925.096072 1838.577644,941.128375 1839.751176,955.889077 1849.184022,969.315652 1863.647810,978.069011 1873.920483,982.043259 1881.761453,986.539142 1887.454483,993.727120 1890.738018,1002.390481 1891.649906,1015.934480 1887.153721,1025.204229 1882.971256,1038.818409 1873.821999,1045.966800 1869.311380,1053.528321 1861.866307,1060.653247 1851.193378,1062.497657 1834.649329,1061.993463 1820.739453,1058.557520 1813.179951,1056.720312 1798.757170,1051.594129 1790.029782,1053.167730 1778.233295,1062.294128 1770.128781,1073.532915 1763.710465,1084.759552 1762.686077,1098.574311 1763.583821,1110.421157 1751.423883,1128.028238 1750.823194,1137.721373 1749.966788,1145.964753 1746.651971,1152.788757 1735.731062,1154.392669 1724.212837,1147.529202 1717.318995,1142.021954"/>
    <poly id="1058458959" type="building.house" color="255,230,230" fill="1" layer="-1.00" shape="2110.670069,1426.838677 2117.585505,1408.239209 2126.153458,1410.917012 2120.245363,1429.591370 2110.670069,1426.838677"/>
    <poly id="1058458960" type="building.house" color="255,230,230" fill="1" layer="-1.00" shape="2097.421968,1462.898057 2103.937243,1449.484858 2115.728515,1455.158004 2109.222291,1468.571070 2097.421968,1462.898057"/>
    <poly id="1062318870" type="amenity.parking" color="184,184,179" fill="1" layer="-1.00" shape="992.808526,2307.887766 961.284706,2261.232174 970.787473,2254.876600 1002.293290,2301.543567 992.808526,2307.887766"/>
    <poly id="1062318871" type="amenity.parking" color="184,184,179" fill="1" layer="-1.00" shape="982.946710,2255.728420 997.229643,2244.347579 992.818644,2234.823753 987.589429,2243.416394 978.565265,2248.334202 982.946710,2255.728420"/>
    <poly id="1062319436" type="natural.wood" color="140,196,107" fill="1" layer="-4.00" shape="1182.438838,2219.957084 1193.801346,2229.384652 1242.686256,2284.065368 1260.176231,2273.173033 1257.912037,2264.162947 1242.044723,2237.757628 1244.965711,2216.960658 1182.438838,2219.957084"/>
    <poly id="1062319437" type="natural.wood" color="140,196,107" fill="1" layer="-4.00" shape="1178.397088,2314.232803 1146.244033,2270.502992 1130.625709,2262.732003 1123.170493,2264.432891 1108.533024,2250.258304 1099.302048,2240.268775 1094.371334,2231.828211 1089.783202,2209.526729 1087.839413,2185.069652 1094.005340,2166.879032 1097.051394,2155.121722 1116.368890,2159.646344 1122.844964,2163.816563 1146.007335,2176.275474 1156.894231,2189.969614 1164.513410,2199.437947 1166.440698,2223.373852 1175.151471,2234.424570 1184.279057,2236.960570 1195.165825,2250.654754 1208.746730,2266.441627 1222.819603,2278.483089 1235.266234,2288.960690 1216.140896,2298.278229 1178.397088,2314.232803"/>
    <poly id="1062322623" type="amenity.parking" color="184,184,179" fill="1" layer="-1.00" shape="2898.253994,918.156777 2895.385509,857.513451 2946.089387,855.134627 2948.948463,915.778084 2898.253994,918.156777"/>
    <poly id="1062322624" type="amenity.parking" color="184,184,179" fill="1" layer="-1.00" shape="3019.458964,793.583603 3018.581207,777.764890 2999.057490,778.852305 2998.074797,761.326597 3032.429392,759.415534 3034.298814,792.759834 3019.458964,793.583603"/>
    <poly id="1062323316" type="amenity.parking" color="184,184,179" fill="1" layer="-1.00" shape="1324.627908,1359.427886 1345.531971,1366.460488 1356.551804,1334.025098 1335.647676,1326.992469 1324.627908,1359.427886"/>
    <poly id="1062323929" type="building.house" color="255,230,230" fill="1" layer="-1.00" shape="1217.531489,1687.423253 1212.884835,1681.829793 1218.110483,1677.519568 1222.766354,1683.123997 1217.531489,1687.423253"/>
    <poly id="1062323930" type="building.house" color="255,230,230" fill="1" layer="-1.00" shape="1226.734101,1680.284489 1227.228150,1670.137918 1247.957374,1671.137667 1247.463148,1681.273145 1226.734101,1680.284489"/>
    <poly id="1062323931" type="building.house" color="255,230,230" fill="1" layer="-1.00" shape="1219.939937,1695.055699 1220.294181,1687.251854 1228.442153,1687.749139 1228.233540,1694.940807 1219.939937,1695.055699"/>
    <poly id="1062323932" type="building.house" color="255,230,230" fill="1" layer="-1.00" shape="1221.792711,1703.150690 1222.162168,1696.444920 1229.511113,1696.853430 1229.141650,1703.559199 1221.792711,1703.150690"/>
    <poly id="1062323933" type="building.house" color="255,230,230" fill="1" layer="-1.00" shape="1241.779686,1708.820097 1243.314117,1700.478499 1251.139455,1701.901057 1250.060525,1707.784617 1241.779686,1708.820097"/>
    <poly id="1062323934" type="building.house" color="255,230,230" fill="1" layer="-1.00" shape="1230.288488,1707.159889 1230.981488,1698.940882 1237.571048,1699.504137 1236.868823,1707.712178 1230.288488,1707.159889"/>
    <poly id="1062323935" type="building.house" color="255,230,230" fill="1" layer="-1.00" shape="1231.953182,1697.096946 1232.741130,1690.496318 1237.626654,1691.083178 1236.838702,1697.683806 1231.953182,1697.096946"/>
    <poly id="1062323936" type="building.house" color="255,230,230" fill="1" layer="-1.00" shape="1244.143707,1699.501848 1244.699378,1692.493968 1251.714951,1693.051333 1251.159274,1700.059212 1244.143707,1699.501848"/>
    <poly id="1062331817" type="building.house" color="255,230,230" fill="1" layer="-1.00" shape="1087.769904,1974.177329 1087.510428,1965.927137 1093.536454,1965.743715 1093.795770,1973.982816 1087.769904,1974.177329"/>
    <poly id="1062331818" type="building.house" color="255,230,230" fill="1" layer="-1.00" shape="1095.318613,1972.663721 1095.756925,1965.701826 1101.845025,1966.072240 1101.406861,1973.045226 1095.318613,1972.663721"/>
    <poly id="1062331819" type="building.house" color="255,230,230" fill="1" layer="-1.00" shape="1104.058266,1965.509044 1104.604879,1957.857832 1110.920808,1958.313843 1110.374036,1965.953963 1104.058266,1965.509044"/>
    <poly id="1062331820" type="building.house" color="255,230,230" fill="1" layer="-1.00" shape="1103.766488,1927.472434 1101.782606,1919.734283 1113.553546,1916.742133 1115.537418,1924.480286 1103.766488,1927.472434"/>
    <poly id="1062331821" type="building.house" color="255,230,230" fill="1" layer="-1.00" shape="1109.430063,1941.028181 1107.774770,1932.142810 1119.783056,1929.923943 1121.438337,1938.809315 1109.430063,1941.028181"/>
    <poly id="1062331822" type="building.house" color="255,230,230" fill="1" layer="-1.00" shape="1112.792794,1954.061145 1111.077147,1946.053021 1121.083238,1943.928482 1122.798876,1951.936608 1112.792794,1954.061145"/>
    <poly id="1062331823" type="building.house" color="255,230,230" fill="1" layer="-1.00" shape="1090.773005,1961.932491 1091.284249,1953.039263 1101.581801,1953.628641 1101.070392,1962.510777 1090.773005,1961.932491"/>
    <poly id="1062331824" type="building.house" color="255,230,230" fill="1" layer="-1.00" shape="1090.781526,1949.474030 1088.190698,1935.232235 1104.775419,1932.239872 1107.366220,1946.481671 1090.781526,1949.474030"/>
    <poly id="1062331825" type="building.house" color="255,230,230" fill="1" layer="-1.00" shape="1089.582924,1931.685096 1087.748962,1923.645335 1100.048671,1920.867710 1101.873558,1928.907598 1089.582924,1931.685096"/>
    <poly id="1066214305" type="building.yes" color="255,230,230" fill="1" layer="-1.00" shape="3471.055894,496.788743 3467.839960,492.994061 3473.657982,488.111404 3476.865001,491.917302 3471.055894,496.788743"/>
    <poly id="1066214308" type="building.yes" color="255,230,230" fill="1" layer="-1.00" shape="3522.765546,536.910503 3521.962388,521.845137 3510.673060,522.431225 3511.476237,537.496591 3522.765546,536.910503"/>
    <poly id="1076464981" type="building.yes" color="255,230,230" fill="1" layer="-1.00" shape="2543.612585,1599.193411 2553.640097,1595.938653 2550.079174,1584.172634 2539.910215,1587.029960 2541.652652,1592.453099 2543.612585,1599.193411"/>
    <poly id="1076464982" type="natural.tree_row" color="140,196,107" fill="0" layer="-4.00" shape="2439.590984,1524.472262 2526.693439,1497.163338"/>
    <poly id="1076464983" type="natural.tree_row" color="140,196,107" fill="0" layer="-4.00" shape="2530.904138,1512.015592 2442.511600,1538.454677 2440.875917,1539.497735"/>
    <poly id="1076464984" type="leisure.pitch" color="207,245,201" fill="1" layer="-2.00" shape="2544.128402,1790.952516 2570.400885,1775.760156 2556.429052,1749.836983 2528.621210,1764.795272 2544.128402,1790.952516"/>
    <poly id="1076464986" type="building.yes" color="255,230,230" fill="1" layer="-1.00" shape="2350.995302,1295.659363 2360.759444,1287.726463 2355.520951,1281.907587 2345.754980,1289.707393 2348.049929,1292.438233 2350.995302,1295.659363"/>
    <poly id="1080691808" type="building.retail" color="255,230,230" fill="1" layer="-1.00" shape="2096.468710,876.096646 2110.249460,868.152627 2098.604680,848.133247 2104.694477,844.621542 2069.777995,784.563216 2064.839480,787.404577 2058.208893,775.991578 2051.579287,779.810270 2055.981046,787.382210 2047.282534,792.394207 2060.116491,814.482791 2055.132976,817.346965 2069.192737,841.548695 2073.113923,835.936800 2096.468710,876.096646"/>
    <poly id="111673428" type="leisure.pitch" color="207,245,201" fill="1" layer="-2.00" shape="2684.886372,1358.876594 2697.905494,1319.814930 2768.759743,1343.218352 2755.740355,1382.279906 2684.886372,1358.876594"/>
    <poly id="111673428#1" type="sport.tennis" color="79,230,125" fill="1" layer="-2.00" shape="2684.886372,1358.876594 2697.905494,1319.814930 2768.759743,1343.218352 2755.740355,1382.279906 2684.886372,1358.876594"/>
    <poly id="111673440" type="leisure.track" color="207,245,201" fill="1" layer="-2.00" shape="2367.517744,1474.973549 2371.154781,1489.622831 2379.505397,1487.045424 2379.235527,1480.592575 2387.847106,1484.479241 2397.111015,1487.014624 2405.026955,1488.436949 2412.759890,1487.753982 2422.838177,1486.872443 2430.152467,1482.767273 2438.507653,1477.216740 2446.635535,1468.973557 2450.709466,1462.605352 2453.430324,1452.106651 2454.328752,1440.934040 2424.492557,1339.147845 2415.685597,1328.296959 2408.467757,1323.581298 2398.702120,1319.510754 2387.711592,1318.674208 2379.976077,1319.179725 2372.044326,1321.241065 2361.749788,1326.197020 2353.877278,1331.252871 2348.771602,1338.411842 2343.670338,1347.212628 2342.218108,1350.394275 2337.491785,1357.448203 2337.172551,1377.121772 2355.777910,1439.346293 2362.895725,1461.879817 2367.517744,1474.973549"/>
    <poly id="111673447" type="leisure.pitch" color="207,245,201" fill="1" layer="-2.00" shape="2796.363420,1405.353868 2809.235256,1367.425953 2860.093831,1384.536048 2847.221811,1422.463885 2796.363420,1405.353868"/>
    <poly id="111673447#1" type="sport.tennis" color="79,230,125" fill="1" layer="-2.00" shape="2796.363420,1405.353868 2809.235256,1367.425953 2860.093831,1384.536048 2847.221811,1422.463885 2796.363420,1405.353868"/>
    <poly id="1118548535" type="building.apartments" color="255,230,230" fill="1" layer="-1.00" shape="3074.399508,1560.195709 3081.844695,1556.366637 3069.973862,1533.509192 3062.528811,1537.349365 3074.399508,1560.195709"/>
    <poly id="1118548536" type="building.apartments" color="255,230,230" fill="1" layer="-1.00" shape="3063.282407,1596.557248 3060.940010,1571.062611 3052.066556,1571.871520 3054.399914,1597.366279 3063.282407,1596.557248"/>
    <poly id="1124198206" type="building.yes" color="255,230,230" fill="1" layer="-1.00" shape="2722.259547,777.309976 2722.147222,771.087946 2720.180281,771.125950 2720.045536,763.927981 2721.985435,763.901440 2721.877966,758.034342 2743.142988,757.643593 2743.497328,776.919600 2722.259547,777.309976"/>
    <poly id="1124246393" type="building.yes" color="255,230,230" fill="1" layer="-1.00" shape="1349.915871,1259.367023 1351.125715,1251.140885 1333.647102,1248.598213 1332.859807,1253.945217 1330.506885,1253.600590 1330.084352,1256.479727 1349.915871,1259.367023"/>
    <poly id="1124246394" type="building.yes" color="255,230,230" fill="1" layer="-1.00" shape="2231.684360,1709.995939 2237.820395,1697.353513 2243.467820,1699.294982 2248.095026,1714.740462 2241.318058,1716.364507 2239.314277,1711.067041 2231.684360,1709.995939"/>
    <poly id="1124246395" type="building.yes" color="255,230,230" fill="1" layer="-1.00" shape="2783.903581,927.152563 2783.824725,916.082127 2803.188945,915.950467 2803.267778,927.020903 2783.903581,927.152563"/>
    <poly id="1124252346" type="building.yes" color="255,230,230" fill="1" layer="-1.00" shape="2822.903418,953.377331 2827.204940,947.039493 2831.359156,949.822692 2827.048720,956.171744 2822.903418,953.377331"/>
    <poly id="1124488174" type="building.yes" color="255,230,230" fill="1" layer="-1.00" shape="1439.441511,1333.222475 1437.463299,1314.734314 1444.768936,1313.956578 1444.435780,1310.843834 1453.733142,1309.861066 1454.065375,1312.907261 1460.067423,1312.269592 1462.046509,1330.824306 1439.441511,1333.222475"/>
    <poly id="1124488175" type="building.yes" color="255,230,230" fill="1" layer="-1.00" shape="1461.566219,1320.347328 1460.706432,1310.618879 1468.276629,1309.959537 1468.546173,1313.062067 1496.698657,1310.587302 1497.493594,1319.562272 1480.841144,1321.023847 1481.452565,1327.871348 1490.851766,1327.042524 1491.690785,1336.582667 1483.885242,1337.267431 1483.659934,1334.741165 1475.582610,1335.440787 1475.281123,1331.994790 1473.062490,1332.180772 1474.471483,1348.191800 1467.643985,1348.796497 1466.913065,1340.519551 1458.455503,1341.257726 1457.745617,1333.191271 1467.597725,1332.333973 1467.383471,1329.951773 1470.290233,1329.700808 1469.408034,1319.662043 1461.566219,1320.347328"/>
    <poly id="1124488176" type="building.yes" color="255,230,230" fill="1" layer="-1.00" shape="1472.738234,1302.165499 1474.088939,1292.972276 1494.368541,1293.524001 1495.814048,1304.963891 1472.738234,1302.165499"/>
    <poly id="1124488177" type="building.yes" color="255,230,230" fill="1" layer="-1.00" shape="1459.292305,1284.401651 1458.978067,1280.689580 1462.926338,1280.357652 1463.240729,1284.080814 1459.292305,1284.401651"/>
    <poly id="1124488178" type="building.yes" color="255,230,230" fill="1" layer="-1.00" shape="1450.904086,1280.978706 1460.153857,1279.830198 1459.389225,1273.705911 1450.139448,1274.854420 1450.904086,1280.978706"/>
    <poly id="1124488179" type="building.yes" color="255,230,230" fill="1" layer="-1.00" shape="1431.606925,1300.992449 1430.444711,1292.998814 1437.728403,1291.944032 1438.890610,1299.937668 1431.606925,1300.992449"/>
    <poly id="1125715731" type="man_made.bridge" color="255,230,230" fill="1" layer="-1.00" shape="2398.931780,2325.243615 2387.317516,2311.236308 2392.489852,2306.994067 2404.103959,2320.990289 2398.931780,2325.243615"/>
    <poly id="1125715732" type="man_made.bridge" color="255,230,230" fill="1" layer="-1.00" shape="2573.505141,2188.182539 2568.345268,2166.886720 2573.879402,2162.573071 2579.026856,2183.625001 2573.505141,2188.182539"/>
    <poly id="1125715733" type="man_made.bridge" color="255,230,230" fill="1" layer="-1.00" shape="2661.892087,2117.436200 2684.089257,2100.613697 2669.003061,2086.598103 2646.814237,2104.030683 2661.892087,2117.436200"/>
    <poly id="1125715734" type="man_made.bridge" color="255,230,230" fill="1" layer="-1.00" shape="2718.111213,2072.790823 2705.422186,2058.398452 2703.263206,2060.280659 2715.952234,2074.673027 2718.111213,2072.790823"/>
    <poly id="1125715735" type="man_made.bridge" color="255,230,230" fill="1" layer="-1.00" shape="3177.191527,1823.777684 3166.293151,1806.376059 3164.207725,1807.680272 3175.105952,1825.070803 3177.191527,1823.777684"/>
    <poly id="1125715737" type="man_made.torii" color="255,230,230" fill="0" layer="-1.00" shape="3251.753558,1552.175100 3253.815648,1551.814192"/>
    <poly id="1125715738" type="man_made.bridge" color="255,230,230" fill="1" layer="-1.00" shape="3230.842391,1442.676895 3271.958524,1422.203521 3269.703914,1412.427416 3229.115119,1431.684400 3230.842391,1442.676895"/>
    <poly id="1125715740" type="man_made.bridge" color="255,230,230" fill="1" layer="-1.00" shape="3218.919390,1085.334248 3217.541993,1080.726952 3169.928596,1094.899117 3171.305865,1099.495315 3218.919390,1085.334248"/>
    <poly id="1125715742" type="man_made.bridge" color="255,230,230" fill="1" layer="-1.00" shape="3038.175094,717.369713 3040.327504,726.936381 3087.683827,716.383652 3085.531617,706.828066 3038.175094,717.369713"/>
    <poly id="1125715743" type="man_made.bridge" color="255,230,230" fill="1" layer="-1.00" shape="3084.778554,703.465858 3037.422165,714.018600 3038.001178,716.584434 3085.357554,706.031695 3084.778554,703.465858"/>
    <poly id="1134476248" type="building.yes" color="255,230,230" fill="1" layer="-1.00" shape="1649.512061,1643.796858 1648.994349,1629.936790 1673.169562,1629.037295 1673.687236,1642.897363 1649.512061,1643.796858"/>
    <poly id="1134477406" type="building.yes" color="255,230,230" fill="1" layer="-1.00" shape="1690.340270,1648.746910 1703.719992,1647.330862 1702.449484,1635.411499 1689.069745,1636.827548 1690.340270,1648.746910"/>
    <poly id="1150450468" type="building.roof" color="255,230,230" fill="1" layer="-1.00" shape="3362.934068,1029.801560 3360.952137,1024.070919 3380.895698,1017.232037 3382.877617,1022.962683 3362.934068,1029.801560"/>
    <poly id="1150450469" type="building.yes" color="255,230,230" fill="1" layer="-1.00" shape="3363.320054,1016.861082 3361.453526,1012.948232 3368.993565,1009.384383 3370.860241,1013.308326 3363.320054,1016.861082"/>
    <poly id="1150450470" type="landuse.retail" color="194,194,130" fill="1" layer="-3.00" shape="3362.519955,1030.683597 3356.212329,1012.886446 3385.560447,1000.250706 3389.381805,1001.241511 3382.807053,1023.773482 3362.519955,1030.683597"/>
    <poly id="115244518" type="building.yes" color="255,230,230" fill="1" layer="-1.00" shape="2592.661073,1619.887850 2585.106380,1594.531253 2611.661380,1586.679219 2619.225067,1612.035712 2592.661073,1619.887850"/>
    <poly id="115244519" type="building.yes" color="255,230,230" fill="1" layer="-1.00" shape="2539.331567,1623.525156 2531.187383,1596.179807 2472.750018,1613.432961 2480.894370,1640.778262 2539.331567,1623.525156"/>
    <poly id="115244522" type="building.yes" color="255,230,230" fill="1" layer="-1.00" shape="2437.212416,1758.194352 2432.398519,1741.009631 2458.227907,1733.832694 2463.041757,1751.017427 2437.212416,1758.194352"/>
    <poly id="115244524" type="building.yes" color="255,230,230" fill="1" layer="-1.00" shape="2417.334704,1728.036934 2412.355558,1710.044647 2409.438387,1710.850140 2405.537325,1696.770247 2407.587551,1696.209617 2403.305049,1680.759336 2400.414909,1681.553366 2397.410741,1670.733822 2400.038940,1670.009947 2396.590663,1656.556188 2387.830852,1661.014042 2379.584532,1662.591581 2358.245013,1664.004929 2362.737056,1680.184502 2366.096849,1679.261982 2369.129768,1690.192060 2365.715747,1691.126417 2370.160163,1707.140241 2372.490303,1706.498105 2376.487077,1720.942765 2374.066605,1721.608328 2378.769421,1738.617046 2417.334704,1728.036934"/>
    <poly id="115244525" type="building.yes" color="255,230,230" fill="1" layer="-1.00" shape="2395.481895,1760.741576 2390.486418,1742.882649 2414.708319,1736.160300 2413.612243,1732.259250 2421.740301,1729.995551 2427.832093,1751.777729 2395.481895,1760.741576"/>
    <poly id="115244526" type="building.yes" color="255,230,230" fill="1" layer="-1.00" shape="2487.380773,1801.759200 2482.931836,1788.041790 2452.687962,1797.886237 2454.368403,1804.075679 2450.589797,1805.525318 2436.499064,1816.557181 2434.939095,1811.220306 2428.984466,1813.309961 2437.245722,1840.587062 2443.494030,1838.759634 2442.357005,1834.515237 2458.977318,1834.742108 2463.221126,1850.026538 2492.865521,1841.432837 2487.937071,1823.817006 2468.182118,1829.690247 2462.538680,1809.521581 2487.380773,1801.759200"/>
    <poly id="115244529" type="amenity.school" color="237,199,199" fill="1" layer="-2.00" shape="2607.742933,1441.582643 2603.243290,1424.160573 2554.488174,1439.505524 2539.909385,1389.839024 2562.009825,1381.715105 2554.746525,1359.116875 2534.445621,1365.585370 2518.460995,1317.213947 2544.487344,1308.437121 2557.751557,1354.127899 2561.967937,1351.529664 2564.173440,1357.001930 2581.742925,1351.669201 2580.753623,1344.971054 2566.341887,1288.967716 2520.648230,1304.814468 2518.496906,1302.636304 2499.661895,1308.907282 2503.219782,1320.440356 2507.824891,1319.744888 2520.296047,1367.753983 2517.805501,1369.929209 2526.460005,1394.804745 2530.410565,1393.319510 2544.338199,1443.760386 2540.612290,1445.098319 2545.032967,1458.072861 2549.663017,1456.556134 2607.742933,1441.582643"/>
    <poly id="115244529#1" type="building.yes" color="255,230,230" fill="1" layer="-1.00" shape="2607.742933,1441.582643 2603.243290,1424.160573 2554.488174,1439.505524 2539.909385,1389.839024 2562.009825,1381.715105 2554.746525,1359.116875 2534.445621,1365.585370 2518.460995,1317.213947 2544.487344,1308.437121 2557.751557,1354.127899 2561.967937,1351.529664 2564.173440,1357.001930 2581.742925,1351.669201 2580.753623,1344.971054 2566.341887,1288.967716 2520.648230,1304.814468 2518.496906,1302.636304 2499.661895,1308.907282 2503.219782,1320.440356 2507.824891,1319.744888 2520.296047,1367.753983 2517.805501,1369.929209 2526.460005,1394.804745 2530.410565,1393.319510 2544.338199,1443.760386 2540.612290,1445.098319 2545.032967,1458.072861 2549.663017,1456.556134 2607.742933,1441.582643"/>
    <poly id="115244534" type="building.yes" color="255,230,230" fill="1" layer="-1.00" shape="2543.857836,1651.485876 2539.501845,1637.933573 2482.442845,1655.855596 2492.875982,1690.125291 2510.786764,1684.610213 2504.459170,1662.809032 2543.857836,1651.485876"/>
    <poly id="115244535" type="building.yes" color="255,230,230" fill="1" layer="-1.00" shape="2635.697490,1505.443519 2618.448539,1442.811636 2685.000602,1421.532333 2698.502875,1438.975434 2702.122009,1437.783247 2710.691628,1467.097589 2706.658542,1467.851689 2704.781288,1487.679664 2635.697490,1505.443519"/>
    <poly id="115244536" type="building.yes" color="255,230,230" fill="1" layer="-1.00" shape="2481.763034,1294.187234 2483.194794,1289.508240 2467.194686,1238.053055 2465.802620,1235.709180 2458.783095,1237.524962 2440.293218,1242.526643 2425.902502,1246.296201 2425.203960,1252.873269 2438.339685,1301.705180 2442.787672,1304.095889 2462.913760,1298.095522 2481.763034,1294.187234"/>
    <poly id="115244539" type="building.yes" color="255,230,230" fill="1" layer="-1.00" shape="2454.163867,1627.222203 2450.298166,1614.395400 2368.506820,1638.858801 2372.217394,1652.264576 2376.707922,1651.160136 2379.532170,1658.776054 2385.041994,1656.637007 2382.282348,1648.443326 2400.166487,1643.627297 2403.781805,1656.701579 2415.903156,1653.429026 2411.920965,1639.383526 2430.823986,1633.499676 2432.951236,1641.857357 2438.319317,1640.618880 2436.260085,1632.593077 2454.163867,1627.222203"/>
    <poly id="115244541" type="amenity.university" color="237,199,199" fill="1" layer="-2.00" shape="2419.930375,1852.473034 2401.560256,1819.199816 2373.871185,1742.378485 2340.189699,1634.554840 2325.078047,1590.387356 2315.357231,1563.152573 2312.255269,1554.464393 2310.369717,1548.532947 2247.488695,1382.879562 2287.990309,1367.956892 2298.974422,1360.406539 2327.090597,1328.214782 2396.527407,1279.947075 2405.585577,1266.809860 2418.424392,1254.996416 2423.865887,1246.534918 2428.212481,1238.887189 2432.702503,1231.781089 2438.526131,1222.094050 2446.640927,1210.234505 2461.698404,1194.918368 2504.366443,1154.085376 2530.085167,1124.811554 2537.547788,1114.303380 2542.145195,1103.113382 2551.016514,1072.339885 2557.041123,1050.835374 2585.356791,1035.715014 2608.176094,1027.714528 2610.221018,1026.754651 2650.021745,1008.160206 2701.058719,1006.995702 2757.898060,1022.392680 2812.892630,1107.117597 2879.079475,1177.656334 2943.883424,1228.667315 3007.623912,1262.930683 3042.370677,1325.768127 3032.020760,1349.938335 3005.859329,1405.286919 2992.090725,1416.102668 2956.245712,1408.271888 2926.117635,1411.456851 2894.184568,1417.894849 2873.838536,1423.719751 2859.442710,1425.114633 2851.776726,1424.731298 2819.985016,1414.316289 2804.966066,1427.823017 2793.376455,1435.536328 2784.034154,1421.297745 2777.893913,1411.830043 2780.288059,1403.266233 2754.441155,1392.681394 2753.373971,1397.510664 2786.059086,1452.687439 2779.541250,1460.020780 2763.707721,1473.616381 2769.197512,1481.928131 2787.244830,1479.063161 2803.219996,1466.541755 2807.481769,1470.577055 2830.332620,1509.381023 2817.771069,1552.751689 2774.183119,1581.958507 2709.408806,1623.758424 2661.916103,1641.847888 2591.936074,1627.186359 2545.355450,1664.844385 2515.192596,1689.231368 2561.053771,1753.234850 2594.345139,1797.075946 2602.313350,1804.321924 2599.665287,1807.564289 2595.144548,1811.753089 2600.512635,1821.109214 2573.075550,1849.219455 2555.475995,1856.915621 2525.530500,1839.576099 2502.791094,1833.409102 2497.221225,1843.724985 2491.437611,1855.641300 2469.965353,1855.935753 2419.930375,1852.473034"/>
    <poly id="115244543" type="building.yes" color="255,230,230" fill="1" layer="-1.00" shape="2601.708869,1583.498523 2595.950109,1564.163396 2652.283956,1547.516747 2658.004218,1566.697121 2637.688285,1572.699670 2640.900205,1583.483156 2637.442014,1584.506761 2638.145112,1586.860095 2635.219730,1587.732186 2635.675769,1589.256874 2624.488625,1592.571795 2620.164686,1578.042772 2601.708869,1583.498523"/>
    <poly id="115244544" type="building.yes" color="255,230,230" fill="1" layer="-1.00" shape="2577.221478,1418.027218 2569.639819,1394.024436 2592.249954,1387.369073 2599.570110,1412.140920 2577.221478,1418.027218"/>
    <poly id="115244547" type="amenity.university" color="237,199,199" fill="1" layer="-2.00" shape="2445.182298,1663.766111 2440.464254,1647.622884 2415.595634,1655.463398 2420.668760,1670.392526 2445.182298,1663.766111"/>